Version 4
SHEET 1 880 680
WIRE -128 -368 -272 -368
WIRE 64 -368 -64 -368
WIRE -272 -272 -272 -368
WIRE -224 -272 -272 -272
WIRE 96 -272 32 -272
WIRE 128 -272 96 -272
WIRE -224 -208 -320 -208
WIRE 64 -208 64 -368
WIRE 64 -208 32 -208
WIRE -224 -144 -320 -144
WIRE 96 -144 32 -144
WIRE 224 -144 176 -144
WIRE 224 -112 224 -144
WIRE -256 -80 -272 -80
WIRE -224 -80 -256 -80
WIRE 80 -80 32 -80
WIRE 80 -32 80 -80
WIRE -256 0 -256 -16
WIRE -240 96 -352 96
WIRE 0 96 -240 96
WIRE 336 96 224 96
WIRE -16 144 -80 144
WIRE 288 144 240 144
WIRE -352 160 -352 96
WIRE -16 160 -16 144
WIRE 0 160 -16 160
WIRE 16 160 0 160
WIRE 240 160 240 144
WIRE 240 160 224 160
WIRE -240 192 -240 176
WIRE -160 192 -240 192
WIRE -240 208 -240 192
WIRE -160 224 -160 192
WIRE 0 224 -80 224
WIRE 288 224 224 224
WIRE 288 256 288 224
WIRE -352 288 -352 240
WIRE -240 288 -352 288
WIRE 0 288 -240 288
WIRE 320 288 224 288
FLAG 336 96 V+
IOPIN 336 96 Out
FLAG 128 -272 V+
IOPIN 128 -272 Out
FLAG 320 288 V-
IOPIN 320 288 BiDir
FLAG -272 -80 V-
IOPIN -272 -80 BiDir
FLAG 288 256 0
FLAG -160 224 0
FLAG 224 -112 0
FLAG 80 -32 0
FLAG 96 -208 0
FLAG -256 0 0
SYMBOL ad8221 112 192 R0
SYMATTR InstName U1
SYMATTR SpiceModel AD8221
SYMBOL res 272 128 R0
SYMATTR InstName R1
SYMATTR Value 10k
SYMBOL voltage 80 -144 M90
WINDOW 0 32 56 VTop 2
WINDOW 3 -32 56 VBottom 2
WINDOW 123 0 0 Left 2
WINDOW 39 0 0 Left 2
SYMATTR InstName V1
SYMATTR Value 5
SYMBOL voltage -352 144 M0
WINDOW 123 0 0 Left 2
WINDOW 39 0 0 Left 2
SYMATTR InstName V3
SYMATTR Value SINE(0 2.1 100)
SYMBOL res -256 80 R0
SYMATTR InstName R2
SYMATTR Value 10k
SYMBOL res -256 192 R0
SYMATTR InstName R3
SYMATTR Value 10k
SYMBOL res -96 128 R0
SYMATTR InstName R4
SYMATTR Value 49.4k
SYMBOL PowerProducts\\LT1026 -96 -176 R0
SYMATTR InstName U2
SYMBOL cap -128 -352 R270
WINDOW 0 32 32 VTop 2
WINDOW 3 0 32 VBottom 2
SYMATTR InstName C1
SYMATTR Value 1
SYMBOL cap -336 -208 R0
SYMATTR InstName C2
SYMATTR Value 1
SYMATTR SpiceLine V=10 Irms=0 Rser=0.009 Lser=0 mfg="TDK" pn="C1608X5RIA105K" type="X5R"
SYMBOL cap 80 -272 R0
SYMATTR InstName C4
SYMATTR Value 1
SYMBOL cap -272 -80 R0
SYMATTR InstName C5
SYMATTR Value 1
TEXT -576 -200 Left 2 !.inc ad8221.cir
TEXT -600 368 Left 2 !.tran .1 startup
