Version 4
SHEET 1 2204 2280
WIRE 1328 1568 1200 1568
WIRE 1520 1568 1392 1568
WIRE 1744 1680 1584 1680
WIRE 1792 1680 1744 1680
WIRE 1200 1696 1200 1568
WIRE 1232 1696 1200 1696
WIRE 1584 1696 1584 1680
WIRE 1584 1696 1488 1696
WIRE 1648 1696 1584 1696
WIRE 1792 1696 1792 1680
WIRE 1584 1712 1584 1696
WIRE 1232 1760 1152 1760
WIRE 1520 1760 1520 1568
WIRE 1520 1760 1488 1760
WIRE 1584 1792 1584 1776
WIRE 1568 1808 1520 1808
WIRE 1792 1808 1792 1776
WIRE 1232 1824 1152 1824
WIRE 1520 1824 1520 1808
WIRE 1520 1824 1488 1824
WIRE 1536 1824 1520 1824
WIRE 1664 1824 1616 1824
WIRE 1664 1840 1664 1824
WIRE 1120 1872 1008 1872
WIRE 1152 1872 1120 1872
WIRE 1008 1888 1008 1872
WIRE 1120 1888 1120 1872
WIRE 1152 1888 1152 1872
WIRE 1152 1888 1120 1888
WIRE 1232 1888 1152 1888
WIRE 1520 1888 1488 1888
WIRE 1152 1904 1152 1888
WIRE 1520 1920 1520 1888
WIRE 1664 1936 1664 1920
WIRE 1328 1968 1216 1968
WIRE 1520 1968 1392 1968
WIRE 1152 1984 1152 1968
WIRE 1008 2000 1008 1968
WIRE 1216 2032 1216 1968
WIRE 1232 2032 1216 2032
WIRE 1744 2032 1744 1680
WIRE 1744 2032 1488 2032
WIRE 1232 2096 1152 2096
WIRE 1520 2096 1520 1968
WIRE 1520 2096 1488 2096
WIRE 1232 2160 1152 2160
WIRE 1568 2160 1568 1808
WIRE 1568 2160 1488 2160
WIRE 1120 2224 1120 1888
WIRE 1232 2224 1120 2224
WIRE 1568 2224 1488 2224
WIRE 1568 2256 1568 2224
FLAG 1152 1984 0
FLAG 1520 1920 0
FLAG 1584 1792 0
FLAG 1664 1936 0
FLAG 1664 1824 IN
FLAG 1648 1696 OUT+
FLAG 1120 1888 OUT-
FLAG 1792 1808 0
FLAG 1008 2000 0
FLAG 1568 2256 0
SYMBOL PowerProducts\\LT1026 1360 1792 R0
SYMATTR InstName U1
SYMBOL polcap 1392 1552 R90
WINDOW 0 0 32 VBottom 2
WINDOW 3 32 32 VTop 2
SYMATTR InstName C1
SYMATTR Value {C}
SYMBOL polcap 1136 1760 R0
WINDOW 0 38 20 Left 2
WINDOW 3 36 46 Left 2
SYMATTR InstName C2
SYMATTR Value {C}
SYMBOL polcap 1136 1968 M180
WINDOW 0 29 53 Left 2
WINDOW 3 31 15 Left 2
SYMATTR InstName C3
SYMATTR Value {C}
SYMBOL polcap 1568 1712 R0
WINDOW 3 29 59 Left 2
SYMATTR Value 10µ
SYMATTR InstName C4
SYMBOL voltage 1664 1824 R0
WINDOW 123 0 0 Left 2
WINDOW 39 0 0 Left 2
SYMATTR InstName V1
SYMATTR Value 5
SYMBOL res 1776 1680 R0
SYMATTR InstName R1
SYMATTR Value 10k
SYMBOL res 992 1872 R0
SYMATTR InstName R2
SYMATTR Value 10k
SYMBOL res 1520 1808 M90
WINDOW 0 0 56 VBottom 2
WINDOW 3 32 56 VTop 2
SYMATTR InstName R3
SYMATTR Value .001
SYMBOL cap 1504 1824 R0
SYMATTR InstName C5
SYMATTR Value {C}
SYMBOL PowerProducts\\LT1026 1360 2128 R0
SYMATTR InstName U2
SYMBOL polcap 1136 2096 R0
WINDOW 0 38 20 Left 2
WINDOW 3 36 46 Left 2
SYMATTR InstName C6
SYMATTR Value {C}
SYMBOL polcap 1392 1952 R90
WINDOW 0 0 32 VBottom 2
WINDOW 3 32 32 VTop 2
SYMATTR InstName C7
SYMATTR Value {C}
TEXT 1760 2264 Left 2 !.tran 40ms startup
TEXT 1760 2232 Left 2 !.step param C list 1u 10u 22u 33u
